docs/ieee8500_v42_single_case/joint_selection_v3/mv_sensitivity/TOP20_RESPONSE_SLOT_09.csv
slot,bus,line,baseline_rho,baseline_node,dI_P_A_per_kw,dI_Q_A_per_kvar,dRho_P_per_kw,dRho_Q_per_kvar,dRho_AIDC_PF95_per_kw,dI_AIDC_PF95_A_per_kw,path_contains_target,certified_available_flexible_kw,performance_prediction
9,196-29518,line.tpx21459660c0,0.9253781267501007,1,-0.001904194588178143,-0.004743719491884235,-1.2206375565260164e-05,-3.040845828133909e-05,-2.2201152465330894e-05,-0.003463379784587645,False,,False
9,196-29518,line.tpx260595c0,0.8827884658409425,2,-0.0008517441531381564,-0.0025077642159487823,-5.459898417548015e-06,-1.607541164067028e-05,-1.0743630708043608e-05,-0.0016760063904568555,False,,False
9,196-29518,line.tpx226308719b0,0.8407752291970066,1,-0.0015557167561439655,-0.002709766824636972,-9.972543308589543e-06,-1.7370300157915075e-05,-1.5681884872682127e-05,-0.0024463740401431382,False,,False
9,196-29518,line.tpx226308710b0,0.8272369457050999,2,-0.0015277335206604903,-0.002661025277134854,-9.793163593951881e-06,-1.7057854340585266e-05,-1.5399809184158538e-05,-0.0024023702327338964,False,,False
9,196-29518,line.tpx21197413c0,0.8421027765239131,1,-0.0017302100386018537,-0.0042958088933318095,-1.1091089991033254e-05,-2.7537236495733808e-05,-2.0142141927732253e-05,-0.003142174140726022,False,,False
9,196-29518,line.tpx2224230689c0,0.8324382703087002,2,-0.00192740779081646,-0.004405466869201291,-1.2355178146294943e-05,-2.8240172238458428e-05,-2.1637273888589627e-05,-0.003375414726615014,False,,False
9,196-29518,line.tpx226308725b0,0.7845027178782626,2,-0.0014454332078202015,-0.00251767356493815,-9.265597486041166e-06,-1.613893310858927e-05,-1.4570208273379359e-05,-0.0022729524906443758,False,,False
9,196-29518,line.ln6291242-1,0.778494076568442,1,-0.053514645937355,-0.0048367188394422556,-0.0001337866148433675,-1.2091797098601198e-05,-0.00013776099635272562,-0.055104398541098824,True,,False
9,196-29518,line.ln5654466-1,0.7784937775989963,1,-0.05351454419212587,-0.004836312414511212,-0.00013378636048033687,-1.2090781036255827e-05,-0.00013776040802615218,-0.055104163210454915,True,,False
9,196-29518,line.ln6321409-1,0.7784935520585864,1,-0.05351446872910515,-0.004836012310988735,-0.00013378617182274732,-1.2090030777456295e-05,-0.00013775997277042047,-0.055103989108176446,True,,False
9,196-29518,line.xj171_48332_sw,0.7784935519624873,1,-0.053514468284163286,-0.0048360114951151445,-0.00013378617071035936,-1.2090028737754555e-05,-0.00013775997098761496,-0.0551039883950699,True,,False
9,196-29518,line.ln5513564-1,0.7784934646199771,1,-0.05351443964900682,-0.004835897024491942,-0.0001337860991225126,-1.2089742561227634e-05,-0.00013775980533809254,-0.055103922135239077,True,,False
9,196-29518,line.ln5775442-1,0.7788227132044595,1,-0.053516207988053566,-0.0048419401195474165,-0.00013379051997014502,-1.2104850298899628e-05,-0.00013776919185896292,-0.055107676743576646,True,,False
9,196-29518,line.ln5896798-1,0.7788225208082477,1,-0.053516147287126614,-0.004841702088867805,-0.0001337903682178121,-1.2104255222133986e-05,-0.0001377688445143558,-0.055107537805748764,True,,False
9,196-29518,line.ln5714974-1,0.7788219732795366,1,-0.053515977832830686,-0.004841041201103735,-0.0001337899445820745,-1.210260300271715e-05,-0.0001377678778203576,-0.05510715112814948,True,,False
9,196-29518,line.ln5473414-1,0.778821479619427,1,-0.05351582889974793,-0.004840464587232418,-0.0001337895722494098,-1.2101161468047739e-05,-0.00013776703167816,-0.05510681267125239,True,,False
9,196-29518,line.ln5742828-2,0.7788211518869109,1,-0.05351573187888903,-0.004840091061737439,-0.00013378932969726476,-1.210022765429919e-05,-0.00013776648219627862,-0.055106592878500414,True,,False
9,196-29518,line.ln5742828-1,0.7788210308571014,1,-0.05351569633609188,-0.004839954805504476,-0.00013378924084023192,-1.2099887013783395e-05,-0.00013776628137612265,-0.055106512550445255,True,,False
9,196-29518,line.ln5815900-1,0.7788209363750854,1,-0.05351566885661896,-0.004839849186879519,-0.00013378917214151853,-1.2099622967221002e-05,-0.00013776612588950118,-0.0551064503558091,True,,False
9,196-29518,line.a8735_48332_sw,0.7788209362099323,1,-0.0535156688160896,-0.00483984826612982,-0.00013378917204021068,-1.2099620665340094e-05,-0.00013776612503160166,-0.05510645001264396,True,,False
9,196-29519,line.tpx21459660c0,0.9253781267501007,1,-0.001892036705342548,-0.00473361830047736,-1.212844041886818e-05,-3.0343707054347746e-05,-2.210193461983603e-05,-0.0034479018006932406,False,,False
9,196-29519,line.tpx260595c0,0.8827884658409425,2,-0.0008445207295153523,-0.0025029457463432436,-5.41359441996736e-06,-1.6044524015046413e-05,-1.0687174438873673e-05,-0.0016671992124634232,False,,False
9,196-29519,line.tpx226308719b0,0.8407752291970066,1,-0.0014990147141844545,-0.0027030618794015027,-9.609068680693778e-06,-1.7327319739746105e-05,-1.530428326450028e-05,-0.0023874681892586337,False,,False
9,196-29519,line.tpx226308710b0,0.8272369457050999,2,-0.001472051401549379,-0.002654440934861668,-9.436226933001723e-06,-1.701564701833691e-05,-1.5028999647263183e-05,-0.0023445239449745316,False,,False
9,196-29519,line.tpx21197413c0,0.8421027765239131,1,-0.0017187533071023608,-0.00428665568882991,-1.1017649404532204e-05,-2.7478562107885462e-05,-2.0049416002564354e-05,-0.0031277088963953033,False,,False
9,196-29519,line.tpx2224230689c0,0.8324382703087002,2,-0.001738692603694858,-0.004215006473756944,-1.1145465408313182e-05,-2.701927226766987e-05,-2.0026270736196328e-05,-0.0031240982348447743,False,,False
9,196-29519,line.tpx226308725b0,0.7845027178782626,2,-0.001392750731682213,-0.002511443928433721,-8.927889305676562e-06,-1.6098999541247494e-05,-1.4219374564166424e-05,-0.0022182224320063393,False,,False
9,196-29519,line.ln6291242-1,0.778494076568442,1,-0.05231192252836081,-0.004540811903325448,-0.00013077980632086872,-1.1352029758326942e-05,-0.00013451103806394823,-0.05380441522559087,True,,False
9,196-29519,line.ln5654466-1,0.7784937775989963,1,-0.052311829310440316,-0.004540408621807046,-0.00013077957327611855,-1.1351021554528717e-05,-0.0001345104736386348,-0.053804189455445364,True,,False
9,196-29519,line.ln6321409-1,0.7784935520585864,1,-0.05231176017400685,-0.0045401107396969564,-0.00013077940043498826,-1.1350276849231289e-05,-0.00013451005602471022,-0.05380402240989709,True,,False
9,196-29519,line.xj171_48332_sw,0.7784935519624873,1,-0.05231175979875502,-0.004540110358988159,-0.0001307793994968498,-1.135027589743709e-05,-0.00013451005477373214,-0.05380402190951233,True,,False
9,196-29519,line.ln5513564-1,0.7784934646199771,1,-0.05231173351415919,-0.004539996474647978,-0.000130779333785358,-1.1349991186626607e-05,-0.00013450989548232235,-0.05380395819294405,True,,False
9,196-29519,line.ln5775442-1,0.7788227132044595,1,-0.05231336939792186,-0.004545991775444236,-0.00013078342349476246,-1.1364979438599487e-05,-0.00013451891159191472,-0.05380756463678422,True,,False
9,196-29519,line.ln5896798-1,0.7788225208082477,1,-0.05231331370751491,-0.004545755566226717,-0.00013078328426874286,-1.1364388915580115e-05,-0.0001345185782703649,-0.05380743130816197,True,,False
9,196-29519,line.ln5714974-1,0.7788219732795366,1,-0.052313158140322,-0.004545099769046601,-0.00013078289535078946,-1.1362749422594298e-05,-0.00013451765047712652,-0.05380706019085974,True,,False
9,196-29519,line.ln5473414-1,0.778821479619427,1,-0.05231302137721627,-0.004544527602604376,-0.0001307825534430096,-1.1361319006530923e-05,-0.00013451683841432283,-0.053806735365738934,True,,False
9,196-29519,line.ln5742828-2,0.7788211518869109,1,-0.052312932220246466,-0.004544156937498656,-0.00013078233055063837,-1.1360392343784387e-05,-0.00013451631094263595,-0.05380652437704053,True,,False
9,196-29519,line.ln5742828-1,0.7788210308571014,1,-0.052312899636604016,-0.004544021777746821,-0.00013078224909152114,-1.1360054444353729e-05,-0.00013451611842134673,-0.053806447368535994,True,,False
9,196-29519,line.ln5815900-1,0.7788209363750854,1,-0.0523128741909602,-0.004543917075807258,-0.00013078218547740716,-1.1359792689513704e-05,-0.00013451596877257736,-0.053806387509028865,True,,False
9,196-29519,line.a8735_48332_sw,0.7788209362099323,1,-0.052312874599550696,-0.004543915511220575,-0.00013078218649886786,-1.1359788778086966e-05,-0.00013451596850841426,-0.05380638740336459,True,,False
9,196-29520,line.tpx21459660c0,0.9253781267501007,1,-0.0025113085369241617,-0.004967378464513672,-1.6098131646991032e-05,-3.1842169644358265e-05,-2.656414668350049e-05,-0.004144006882617593,False,,False
9,196-29520,line.tpx260595c0,0.8827884658409425,2,-0.000862307718620059,-0.002508847003610981,-5.52761358085796e-06,-1.6082352587265536e-05,-1.0813627250174308e-05,-0.0016869258510326065,False,,False
9,196-29520,line.tpx226308719b0,0.8407752291970066,1,-0.0015024320930052681,-0.002705228544698457,-9.63097495521037e-06,-1.734120861984767e-05,-1.5330754593144992e-05,-0.0023915977165237987,False,,False
9,196-29520,line.tpx226308710b0,0.8272369457050999,2,-0.0014754073085612163,-0.0026565686285096035,-9.457739157447964e-06,-1.70292860801613e-05,-1.5054994814540653e-05,-0.0023485791910691353,False,,False
9,196-29520,line.tpx21197413c0,0.8421027765239131,1,-0.00224587169064705,-0.004463892313552265,-1.4396613401579383e-05,-2.8614694317641298e-05,-2.3801808598340017e-05,-0.0037130821413417815,False,,False
9,196-29520,line.tpx2224230689c0,0.8324382703087002,2,-0.0016891308464579424,-0.004140204787788093,-1.0827761836251781e-05,-2.6539774280742723e-05,-1.955096379736671e-05,-0.003049950352389317,False,,False
9,196-29520,line.tpx226308725b0,0.7845027178782626,2,-0.001395925853714175,-0.0025134570016689395,-8.948242652018212e-06,-1.6111903856863563e-05,-1.4243969353939286e-05,-0.002222059219213279,False,,False
9,196-29520,line.ln6291242-1,0.778494076568442,1,-0.05275548726891088,-0.004643560364854693,-0.00013188871817226833,-1.160890091217448e-05,-0.00013570437938069648,-0.05428175175227718,True,,False
9,196-29520,line.ln5654466-1,0.7784937775989963,1,-0.05275539235557858,-0.004643156832855766,-0.0001318884808889087,-1.1607892082154958e-05,-0.0001357038105109446,-0.0542815242043909,True,,False
9,196-29520,line.ln6321409-1,0.7784935520585864,1,-0.05275532198308497,-0.004642858793658888,-0.00013188830495769466,-1.1607146984116135e-05,-0.0001357033896778484,-0.05428135587115056,True,,False
9,196-29520,line.xj171_48332_sw,0.7784935519624873,1,-0.052755321787145704,-0.0046428584255693295,-0.00013188830446786426,-1.1607146063963292e-05,-0.0001357033888855784,-0.054281355554226106,True,,False
9,196-29520,line.ln5513564-1,0.7784934646199771,1,-0.05275529485274433,-0.004642744443941638,-0.00013188823713189413,-1.1606861109847433e-05,-0.00013570322788971967,-0.054281291155875426,True,,False
9,196-29520,line.ln5775442-1,0.7788227132044595,1,-0.05275695737620367,-0.004648743838998826,-0.00013189239344052472,-1.1621859597465978e-05,-0.0001357123139628322,-0.054284925585130754,True,,False
9,196-29520,line.ln5896798-1,0.7788225208082477,1,-0.05275690073693795,-0.004648507507482691,-0.0001318922518423471,-1.1621268768691184e-05,-0.00013571197816862742,-0.05428479126745213,True,,False
9,196-29520,line.ln5714974-1,0.7788219732795366,1,-0.05275674239834416,-0.004647851291366578,-0.00013189185599588038,-1.1619628228431989e-05,-0.0001357110431026536,-0.05428441724105141,True,,False
9,196-29520,line.ln5473414-1,0.778821479619427,1,-0.052756603179602735,-0.004647278763542317,-0.00013189150794901128,-1.1618196908869116e-05,-0.00013571022460379475,-0.05428408984151437,True,,False
9,196-29520,line.ln5742828-2,0.7788211518869109,1,-0.05275651250818214,-0.004646907882573714,-0.00013189128127044647,-1.1617269706443167e-05,-0.00013570969316853025,-0.05428387726741449,True,,False
9,196-29520,line.ln5742828-1,0.7788210308571014,1,-0.052756479327229044,-0.004646772710884761,-0.00013189119831807927,-1.1616931777203021e-05,-0.00013570949914419315,-0.05428379965767576,True,,False
9,196-29520,line.ln5815900-1,0.7788209363750854,1,-0.05275645368743653,-0.004646667816814443,-0.0001318911342185758,-1.1616669542025004e-05,-0.00013570934885215484,-0.05428373954086961,True,,False
9,196-29520,line.a8735_48332_sw,0.7788209362099323,1,-0.052756453558970406,-0.004646666810771194,-0.00013189113389738827,-1.1616667026925764e-05,-0.00013570934770429417,-0.054283739081733055,True,,False
9,196-31070,line.tpx21459660c0,0.9253781267501007,1,-0.0005849222131502074,-0.002187735939529034,-3.7495013663346732e-06,-1.4023948330332825e-05,-8.358950274364731e-06,-0.0013039962428019476,False,,False
9,196-31070,line.tpx260595c0,0.8827884658409425,2,-0.0005375147697037619,-0.0019550698743273642,-3.445607498098191e-06,-1.2532499194362057e-05,-7.564840781451908e-06,-0.0011801151619092042,False,,False
9,196-31070,line.tpx226308719b0,0.8407752291970066,1,-0.0007330984556830344,-0.002014425375463702,-4.699349074877013e-06,-1.2912983176072146e-05,-8.943641395294002e-06,-0.001395208057666917,False,,False
9,196-31070,line.tpx226308710b0,0.8272369457050999,2,-0.0007199119505258977,-0.0019781911856711076,-4.614820195703029e-06,-1.268071272869653e-05,-8.78276891196487e-06,-0.0013701119502609201,False,,False
9,196-31070,line.tpx21197413c0,0.8421027765239131,1,-0.0005308565974360135,-0.001981269684677045,-3.402926906592718e-06,-1.2700446696656265e-05,-7.577361864455031e-06,-0.0011820684508620964,False,,False
9,196-31070,line.tpx2224230689c0,0.8324382703087002,2,-0.0005114700727943955,-0.0019089091387911594,-3.2786543127660828e-06,-1.2236597043524533e-05,-7.300629262451267e-06,-0.0011388981649457222,False,,False
9,196-31070,line.tpx226308725b0,0.7845027178782626,2,-0.0006811296768631792,-0.0018716243306045044,-4.366215877349422e-06,-1.1997591862822343e-05,-8.309633623082394e-06,-0.0012963028451989096,False,,False
9,196-31070,line.ln6291242-1,0.778494076568442,1,-0.046875652041080684,-0.0036970346349392003,-0.0001171891301026684,-9.242586587354662e-06,-0.00012022702140467123,-0.04809080856188094,True,,False
9,196-31070,line.ln5654466-1,0.7784937775989963,1,-0.04687562218947505,-0.0036966545041821064,-0.00011718905547369873,-9.241636260481911e-06,-0.00012022663441836376,-0.048090653767337566,True,,False
9,196-31070,line.ln6321409-1,0.7784935520585864,1,-0.04687559981471168,-0.003696373814591425,-0.00011718899953677697,-9.24093453646968e-06,-0.00012022634783591296,-0.04809053913436724,True,,False
9,196-31070,line.xj171_48332_sw,0.7784935519624873,1,-0.046875599492949505,-0.0036963741173678955,-0.00011718899873236488,-9.240935293419739e-06,-0.00012022634728029832,-0.04809053891212288,True,,False
9,196-31070,line.ln5513564-1,0.7784934646199771,1,-0.0468755911566916,-0.003696266107908741,-0.00011718897789175786,-9.240665269749648e-06,-0.00012022623768720292,-0.04809049507487254,True,,False
9,196-31070,line.ln5775442-1,0.7788227132044595,1,-0.04687625752819713,-0.0037019131641216063,-0.00011719064382048616,-9.254782910306236e-06,-0.00012023254385998481,-0.048093017543996294,True,,False
9,196-31070,line.ln5896798-1,0.7788225208082477,1,-0.046876239027909605,-0.003701690571972449,-0.0001171905975698162,-9.254226429944445e-06,-0.00012023231470306508,-0.04809292588120741,True,,False
9,196-31070,line.ln5714974-1,0.7788219732795366,1,-0.04687618685693451,-0.0037010724772699177,-0.00011719046714231407,-9.252681193172574e-06,-0.0001202316763807973,-0.04809267055232809,True,,False
9,196-31070,line.ln5473414-1,0.778821479619427,1,-0.04687614035546517,-0.0037005332953583547,-0.00011719035088864072,-9.251333238424753e-06,-0.00012023111707582383,-0.04809244683033462,True,,False
9,196-31070,line.ln5742828-2,0.7788211518869109,1,-0.046876109769129926,-0.003700183930050116,-0.00011719027442286256,-9.250459825138613e-06,-0.00012023075353298127,-0.04809230141317566,True,,False
9,196-31070,line.ln5742828-1,0.7788210308571014,1,-0.046876098524649024,-0.0037000566549920677,-0.000117190246311627,-9.250141637440201e-06,-0.00012023062083850678,-0.048092248335406186,True,,False
9,196-31070,line.ln5815900-1,0.7788209363750854,1,-0.04687608967572032,-0.0036999578057930194,-0.0001171902241892675,-9.249894514506973e-06,-0.0001202305174907671,-0.04809220699631695,True,,False
9,196-31070,line.a8735_48332_sw,0.7788209362099323,1,-0.046876090177391916,-0.0036999570298235085,-0.00011719022544348645,-9.249892574558771e-06,-0.0001202305181073559,-0.0480922072429397,True,,False
9,196-35813,line.tpx21459660c0,0.9253781267501007,1,-0.002474812954815775,-0.004930335335430414,-1.5864185607838976e-05,-3.160471368862661e-05,-2.6252152646019382e-05,-0.004095335812773451,False,,False
9,196-35813,line.tpx260595c0,0.8827884658409425,2,-0.0008622129387845234,-0.0025091825670102708,-5.527006017858049e-06,-1.6084503634661296e-05,-1.0813726702262869e-05,-0.0016869413655526972,False,,False
9,196-35813,line.tpx226308719b0,0.8407752291970066,1,-0.0014992100948205689,-0.002704234375528358,-9.610321120623322e-06,-1.7334835740567822e-05,-1.5308006094434432e-05,-0.002388048950735029,False,,False
9,196-35813,line.tpx226308710b0,0.8272369457050999,2,-0.0014722432650984274,-0.0026555923439559592,-9.437456827576796e-06,-1.7023027845897154e-05,-1.5032655502540373e-05,-0.0023450942583914318,False,,False
9,196-35813,line.tpx21197413c0,0.8421027765239131,1,-0.002311491758092643,-0.004486620832679478,-1.4817254859578188e-05,-2.8760389953086385e-05,-2.4270337895903555e-05,-0.003786172711758743,False,,False
9,196-35813,line.tpx2224230689c0,0.8324382703087002,2,-0.001689322673897209,-0.004140873017860258,-1.0828991499345353e-05,-2.65440578067766e-05,-1.9553601387381738e-05,-0.003050361816431907,False,,False
9,196-35813,line.tpx226308725b0,0.7845027178782626,2,-0.001392932259662416,-0.002512533309342757,-8.929052946582416e-06,-1.610598275220143e-05,-1.4222833475515947e-05,-0.002218762022175828,False,,False
9,196-35813,line.ln6291242-1,0.778494076568442,1,-0.05277698457535962,-0.0046434630694420775,-0.00013194246143843902,-1.160865767363406e-05,-0.00013575804269822517,-0.054303217079270286,True,,False
9,196-35813,line.ln5654466-1,0.7784937775989963,1,-0.05277688960529758,-0.004643059489978896,-0.0001319422240132484,-1.1607648724931696e-05,-0.00013575747364763315,-0.05430298945905353,True,,False
9,196-35813,line.ln6321409-1,0.7784935520585864,1,-0.052776819149698895,-0.004642761487502867,-0.00013194204787425612,-1.1606903718763828e-05,-0.00013575705263695523,-0.05430282105477766,True,,False
9,196-35813,line.xj171_48332_sw,0.7784935519624873,1,-0.05277681899912068,-0.004642760961303338,-0.000131942047497835,-1.1606902403260566e-05,-0.0001357570518281491,-0.054302820731246024,True,,False
9,196-35813,line.ln5513564-1,0.7784934646199771,1,-0.05277679214978548,-0.004642647151342771,-0.00013194198037447258,-1.1606617878356928e-05,-0.00013575689118597333,-0.054302756474385774,True,,False
9,196-35813,line.ln5775442-1,0.7788227132044595,1,-0.0527784557608868,-0.004648646614214158,-0.0001319461394022059,-1.162161653556204e-05,-0.000135765980033929,-0.054306392013572534,True,,False
9,196-35813,line.ln5896798-1,0.7788225208082477,1,-0.05277839898533898,-0.0046484102325052845,-0.00013194599746335633,-1.1621025581276534e-05,-0.0001357656438577989,-0.05430625754311425,True,,False
9,196-35813,line.ln5714974-1,0.7788219732795366,1,-0.05277824059433556,-0.004647754038586527,-0.0001319456014858833,-1.1619385096472978e-05,-0.00013576470867904613,-0.054305883471599814,True,,False
9,196-35813,line.ln5473414-1,0.778821479619427,1,-0.05277810130539251,-0.0046471814866606564,-0.00013194525326343243,-1.1617953716624996e-05,-0.00013576388998479076,-0.054305555993939346,True,,False
9,196-35813,line.ln5742828-2,0.7788211518869109,1,-0.05277801048137576,-0.004646810606658391,-0.0001319450262034505,-1.1617026516641538e-05,-0.00013576335816891196,-0.054305343267560924,True,,False
9,196-35813,line.ln5742828-1,0.7788210308571014,1,-0.05277797731338296,-0.004646675430024061,-0.0001319449432834463,-1.1616688575077916e-05,-0.00013576316417288732,-0.05430526566915703,True,,False
9,196-35813,line.ln5815900-1,0.7788209363750854,1,-0.05277795146585618,-0.004646570395351546,-0.000131944878664636,-1.161642598840329e-05,-0.00013576301324601082,-0.054305205298402895,True,,False
9,196-35813,line.a8735_48332_sw,0.7788209362099323,1,-0.05277795155672038,-0.0046465695448887345,-0.00013194487889178763,-1.1616423862215175e-05,-0.00013576301277431823,-0.054305205109733495,True,,False
9,196-36167,line.tpx21459660c0,0.9253781267501007,1,-0.0006231034318489037,-0.0021448049069903163,-3.994252768257933e-06,-1.374874940379689e-05,-8.513248163373343e-06,-0.0013280667134862507,False,,False
9,196-36167,line.tpx260595c0,0.8827884658409425,2,-0.0005701454459767774,-0.0019172844127837152,-3.6547784998397503e-06,-1.2290284697291654e-05,-7.694399727962533e-06,-0.001200326357565975,False,,False
9,196-36167,line.tpx226308719b0,0.8407752291970066,1,-0.0007445158019834253,-0.0019797644064141195,-4.77253719216586e-06,-1.269079747701074e-05,-8.94380060490331e-06,-0.0013952328943706133,False,,False
9,196-36167,line.tpx226308710b0,0.8272369457050999,2,-0.0007311239288299021,-0.0019441536737616616,-4.686691851440994e-06,-1.2462523549749971e-05,-8.782925252661074e-06,-0.0013701363394204532,False,,False
9,196-36167,line.tpx21197413c0,0.8421027765239131,1,-0.0005652888224148,-0.0019424192613826108,-3.6236462975236527e-06,-1.2451405521696213e-05,-7.71622537964153e-06,-0.001203731159224532,False,,False
9,196-36167,line.tpx2224230689c0,0.8324382703087002,2,-0.0005446613464812344,-0.0018714979439522494,-3.491418887724418e-06,-1.1996781692003022e-05,-7.4345703431866e-06,-0.0011597929735332618,False,,False
9,196-36167,line.tpx226308725b0,0.7845027178782626,2,-0.000691737655976965,-0.001839420447360851,-4.434215743476244e-06,-1.179115671384734e-05,-8.309781536990902e-06,-0.0012963259197654705,False,,False
9,196-36167,line.ln6291242-1,0.778494076568442,1,-0.04704164335231553,-0.003570066730759436,-0.00011760410838079771,-8.925166826878606e-06,-0.00012053766885286238,-0.048215067541144026,True,,False
9,196-36167,line.ln5654466-1,0.7784937775989963,1,-0.04704160792209677,-0.00356968657536072,-0.0001176040198052064,-8.924216438388477e-06,-0.00012053726789968062,-0.048214907159888215,True,,False
9,196-36167,line.ln6321409-1,0.7784935520585864,1,-0.04704158149181126,-0.0035694058326214417,-0.00011760395372950594,-8.923514581538061e-06,-0.00012053697113478931,-0.048214788453926655,True,,False
9,196-36167,line.xj171_48332_sw,0.7784935519624873,1,-0.04704158154757465,-0.003569405206803822,-0.00011760395386894995,-8.923513017011775e-06,-0.0001205369707599984,-0.04821478830399374,True,,False
9,196-36167,line.ln5513564-1,0.7784934646199771,1,-0.04704157126232644,-0.003569298022171097,-0.00011760392815579612,-8.92324505541442e-06,-0.00012053685697212672,-0.04821474278886043,True,,False
9,196-36167,line.ln5775442-1,0.7788227132044595,1,-0.04704232016217702,-0.0035749453189453106,-0.00011760580040542923,-8.93736329737882e-06,-0.0001205433696634866,-0.04821734786539793,True,,False
9,196-36167,line.ln5896798-1,0.7788225208082477,1,-0.04704229839654772,-0.0035747226947080435,-0.00011760574599134488,-8.936806736747904e-06,-0.0001205431323167693,-0.04821725292672041,True,,False
9,196-36167,line.ln5714974-1,0.7788219732795366,1,-0.04704223723669543,-0.0035741045366251,-0.00011760559309170748,-8.935261341547207e-06,-0.00012054247147029321,-0.04821698858813177,True,,False
9,196-36167,line.ln5473414-1,0.778821479619427,1,-0.04704218288893003,-0.0035735652393782402,-0.00011760545722233617,-8.933913098418955e-06,-0.00012054189245483574,-0.048216756981933354,True,,False
9,196-36167,line.ln5742828-2,0.7788211518869109,1,-0.0470421471922009,-0.003573215903657001,-0.00011760536798050003,-8.93303975912918e-06,-0.00012054151616025661,-0.048216606464105284,True,,False
9,196-36167,line.ln5742828-1,0.7788210308571014,1,-0.047042134106135336,-0.003573088494363219,-0.00011760533526533612,-8.93272123592137e-06,-0.00012054137875157716,-0.04821655150063,True,,False
9,196-36167,line.ln5815900-1,0.7788209363750854,1,-0.04704212373513883,-0.003572989656476011,-0.00011760530933785374,-8.932474141187807e-06,-0.00012054127160798339,-0.048216508643190985,True,,False
9,196-36167,line.a8735_48332_sw,0.7788209362099323,1,-0.04704212363634497,-0.003572989946121652,-0.00011760530909088462,-8.932474865275264e-06,-0.00012054127159901031,-0.04821650863959904,True,,False
9,198-5320,line.tpx21459660c0,0.9253781267501007,1,-0.0003405721475076007,-0.0016145407733034745,-2.183154791668418e-06,-1.0349620341687515e-05,-5.584910492616939e-06,-0.000871246036855643,False,,False
9,198-5320,line.tpx260595c0,0.8827884658409425,2,-0.00031097075651587147,-0.0014445781500427302,-1.9934022853496103e-06,-9.260116346387903e-06,-5.037055340514282e-06,-0.0007857806331236038,False,,False
9,198-5320,line.tpx226308719b0,0.8407752291970066,1,-0.00039797637217020565,-0.00148352803434193,-2.5511305908332282e-06,-9.509795091955375e-06,-5.676849081066926e-06,-0.0008855884566456407,False,,False
9,198-5320,line.tpx226308710b0,0.8272369457050999,2,-0.0003908178270251028,-0.0014568432843162782,-2.5052424809657303e-06,-9.338739002051621e-06,-5.574737553354018e-06,-0.0008696590583164349,False,,False
9,198-5320,line.tpx21197413c0,0.8421027765239131,1,-0.00030892126468984316,-0.0014621195368107465,-1.98026451719846e-06,-9.372561133369484e-06,-5.060876386554201e-06,-0.0007894967163110172,False,,False
9,198-5320,line.tpx2224230689c0,0.8324382703087002,2,-0.0002976517032493575,-0.0014088306565014364,-1.9080237387836263e-06,-9.030965746836817e-06,-4.8763586341836495e-06,-0.0007607119469300826,False,,False
9,198-5320,line.tpx226308725b0,0.7845027178782626,2,-0.00036976413627343163,-0.0013783618886975546,-2.3702829248239965e-06,-8.835653132699406e-06,-5.27442166841612e-06,-0.0008228097802726352,False,,False
9,198-5320,line.ln6291242-1,0.778494076568442,1,-0.04558406107705082,-0.0035263263367255604,-0.00011396015269266035,-8.815815841778374e-06,-0.00011685777123403693,-0.04674310849360612,True,,False
9,198-5320,line.ln5654466-1,0.7784937775989963,1,-0.04558405145630218,-0.003525953761254641,-0.00011396012864073324,-8.814884403129941e-06,-0.00011685744103303112,-0.046742976413222205,True,,False
9,198-5320,line.ln6321409-1,0.7784935520585864,1,-0.04558404402928318,-0.003525678610515115,-0.00011396011007319684,-8.814196526318874e-06,-0.00011685719637132061,-0.0467428785485286,True,,False
9,198-5320,line.xj171_48332_sw,0.7784935519624873,1,-0.04558404380009051,-0.0035256780267047816,-0.00011396010950021074,-8.814195066764174e-06,-0.00011685719531860207,-0.046742878127446756,True,,False
9,198-5320,line.ln5513564-1,0.7784934646199771,1,-0.04558404113538472,-0.003525573031225804,-0.0001139601028384285,-8.81393257806673e-06,-0.0001168571023809572,-0.046742840952395906,True,,False
9,198-5320,line.ln5775442-1,0.7788227132044595,1,-0.04558440040358391,-0.0035311070491843566,-0.00011396100100896644,-8.82776762295423e-06,-0.0001168625479108441,-0.04674501916433585,True,,False
9,198-5320,line.ln5896798-1,0.7788225208082477,1,-0.04558439383924906,-0.0035308888927545468,-0.00011396098459809378,-8.827222231888587e-06,-0.00011686235223859705,-0.046744940895450074,True,,False
9,198-5320,line.ln5714974-1,0.7788219732795366,1,-0.04558437464041276,-0.00353028308455805,-0.000113960936601043,-8.825707711435093e-06,-0.00011686180644274625,-0.0467447225770888,True,,False
9,198-5320,line.ln5473414-1,0.778821479619427,1,-0.04558435696648644,-0.0035297545965136123,-0.00011396089241622054,-8.824386491301794e-06,-0.00011686132799386651,-0.046744531197542495,True,,False
9,198-5320,line.ln5742828-2,0.7788211518869109,1,-0.045584345036132845,-0.003529412216522587,-0.00011396086259030103,-8.82353054126872e-06,-0.0001168610168307763,-0.04674440673232792,True,,False
9,198-5320,line.ln5742828-1,0.7788210308571014,1,-0.045584340585094196,-0.0035292873965317995,-0.0001139608514627577,-8.823218491327278e-06,-0.0001168609031373772,-0.04674436125494229,True,,False
9,198-5320,line.ln5815900-1,0.7788209363750854,1,-0.045584337185289314,-0.0035291905115855116,-0.00011396084296322329,-8.822976278966e-06,-0.00011686081502648956,-0.046744326010595534,True,,False
9,198-5320,line.a8735_48332_sw,0.7788209362099323,1,-0.04558433788903926,-0.003529190104728741,-0.00011396084472259371,-8.822975261779664e-06,-0.00011686081645152701,-0.046744326580618126,True,,False
9,221-242079,line.tpx21459660c0,0.9253781267501007,1,-0.00033931324729508106,-0.001614184680917674,-2.1750849185653287e-06,-1.034733769822438e-05,-5.5760903508897274e-06,-0.0008698700947359356,False,,False
9,221-242079,line.tpx260595c0,0.8827884658409425,2,-0.0003098509551193729,-0.0014442602293058826,-1.9862240712709145e-06,-9.25807839297077e-06,-5.0292072835402794e-06,-0.0007845563362341967,False,,False
9,221-242079,line.tpx226308719b0,0.8407752291970066,1,-0.0003968047903981642,-0.0014831881337755703,-2.5436204513229477e-06,-9.507616242132588e-06,-5.668622788252324e-06,-0.0008843051549600956,False,,False
9,221-242079,line.tpx226308710b0,0.8272369457050999,2,-0.00038966732090273126,-0.0014565094979985815,-2.497867441719759e-06,-9.336599346154717e-06,-5.566659243224181e-06,-0.0008683988419369102,False,,False
9,221-242079,line.tpx21197413c0,0.8421027765239131,1,-0.00030778119953822625,-0.0014617968916041946,-1.972956407303439e-06,-9.370492894900107e-06,-5.052888479548576e-06,-0.0007882506028083947,False,,False
9,221-242079,line.tpx2224230689c0,0.8324382703087002,2,-0.00029655358393654296,-0.001408519831358035,-1.9009845124151603e-06,-9.028973277980246e-06,-4.868664514971965e-06,-0.0007595116643331419,False,,False
9,221-242079,line.tpx226308725b0,0.7845027178782626,2,-0.0003686756083993714,-0.0013780460821308793,-2.3633051820515227e-06,-8.8336287316082e-06,-5.266778537182461e-06,-0.0008216174517997977,False,,False
9,221-242079,line.ln6291242-1,0.778494076568442,1,-0.04553305064504798,-0.0035115875099336336,-0.00011383262661263105,-8.778968774825202e-06,-0.00011671813410877765,-0.04668725364350779,True,,False
9,221-242079,line.ln5654466-1,0.7784937775989963,1,-0.045533041188065226,-0.0035112149694214168,-0.00011383260297015418,-8.778037423551321e-06,-0.00011671780434594072,-0.04668712173838013,True,,False
9,221-242079,line.ln6321409-1,0.7784935520585864,1,-0.045533033961703495,-0.0035109399175894396,-0.00011383258490421655,-8.777349793986922e-06,-0.00011671756026709502,-0.04668702410685313,True,,False
9,221-242079,line.xj171_48332_sw,0.7784935519624873,1,-0.04553303379771023,-0.003510939476484509,-0.0001138325844942667,-8.777348691202391e-06,-0.00011671755949467742,-0.04668702379787569,True,,False
9,221-242079,line.ln5513564-1,0.7784934646199771,1,-0.045533031137551916,-0.003510834250391781,-0.00011383257784386425,-8.777085626021641e-06,-0.00011671746637893143,-0.046686986551573245,True,,False
9,221-242079,line.ln5775442-1,0.7788227132044595,1,-0.0455333873267989,-0.003516367512162333,-0.00011383346831700392,-8.790918780421375e-06,-0.00011672290359004678,-0.046689161436014,True,,False
9,221-242079,line.ln5896798-1,0.7788225208082477,1,-0.04553338082715186,-0.003516149409620084,-0.00011383345206783524,-8.790373524081296e-06,-0.00011672270812378587,-0.04668908324952802,True,,False
9,221-242079,line.ln5714974-1,0.7788219732795366,1,-0.04553336196619284,-0.00351554366747564,-0.00011383340491549765,-8.788859168662455e-06,-0.00011672216322689252,-0.04668886529075429,True,,False
9,221-242079,line.ln5473414-1,0.778821479619427,1,-0.04553334457858682,-0.0035150152388894185,-0.00011383336144649148,-8.78753809724353e-06,-0.00011672168554270913,-0.046688674217071256,True,,False
9,221-242079,line.ln5742828-2,0.7788211518869109,1,-0.045533332824760464,-0.0035146729302937274,-0.00011383333206188562,-8.786682325734319e-06,-0.00011672137487961053,-0.04668854995185043,True,,False
9,221-242079,line.ln5742828-1,0.7788210308571014,1,-0.04553332849383196,-0.0035145480900666826,-0.00011383332123454659,-8.786370225166706e-06,-0.00011672126146977572,-0.04668850458792361,True,,False
9,221-242079,line.ln5815900-1,0.7788209363750854,1,-0.045533324995375324,-0.003514451296524612,-0.00011383331248843165,-8.786128241289326e-06,-0.00011672117318740656,-0.04668846927496821,True,,False
9,221-242079,line.a8735_48332_sw,0.7788209362099323,1,-0.04553332490974071,-0.003514450693813842,-0.00011383331227438065,-8.786126734550148e-06,-0.00011672117247811435,-0.04668846899123215,True,,False
9,221-308718,line.tpx21459660c0,0.9253781267501007,1,-0.0008255355265873732,-0.0028595035085174914,-5.291894401182606e-06,-1.8330150695633485e-05,-1.1316723580370615e-05,-0.0017654088785402646,False,,False
9,221-308718,line.tpx260595c0,0.8827884658409425,2,-0.0007418601980475614,-0.0024776243910764606,-4.755514090015733e-06,-1.588220763515391e-05,-9.975743294841206e-06,-0.0015562159539978537,False,,False
9,221-308718,line.tpx226308719b0,0.8407752291970066,1,-0.0015450696463972236,-0.002772938653905044,-9.90429260511183e-06,-1.777524778145967e-05,-1.5746734016493476e-05,-0.0024564905065718842,False,,False
9,221-308718,line.tpx226308710b0,0.8272369457050999,2,-0.001517277922786775,-0.002723060811845812,-9.726140530685878e-06,-1.745551802462275e-05,-1.5463491853042525e-05,-0.0024123047290759447,False,,False
9,221-308718,line.tpx21197413c0,0.8421027765239131,1,-0.000749941388193065,-0.0025897988166292407,-4.807316590971222e-06,-1.6601274465566362e-05,-1.0263891633514614e-05,-0.0016011670948301259,False,,False
9,221-308718,line.tpx2224230689c0,0.8324382703087002,2,-0.0007224925632272061,-0.0024949861773393422,-4.6313625847727025e-06,-1.5993501136790655e-05,-9.88817219459587e-06,-0.0015425548623596204,False,,False
9,221-308718,line.tpx226308725b0,0.7845027178782626,2,-0.0014355408625803534,-0.002576367192368423,-9.202185016543574e-06,-1.651517431006111e-05,-1.4630460306518959e-05,-0.0022823518078161483,False,,False
9,221-308718,line.ln6291242-1,0.778494076568442,1,-0.04848198344097909,-0.0040019911489821425,-0.00012120495860246105,-1.0004977872457577e-05,-0.0001244934358018041,-0.04979737432071602,True,,False
9,221-308718,line.ln5654466-1,0.7784937775989963,1,-0.04848193415438118,-0.004001602886376077,-0.00012120483538596849,-1.0004007215957955e-05,-0.00012449299354594853,-0.04979719741837085,True,,False
9,221-308718,line.ln6321409-1,0.7784935520585864,1,-0.04848189740781095,-0.004001316152880463,-0.00012120474351956512,-1.0003290382198937e-05,-0.0001244926660676825,-0.049797066427058195,True,,False
9,221-308718,line.xj171_48332_sw,0.7784935519624873,1,-0.04848189721315066,-0.0040013152765254745,-0.00012120474303284334,-1.0003288191340332e-05,-0.00012449266486086032,-0.04979706594435395,True,,False
9,221-308718,line.ln5513564-1,0.7784934646199771,1,-0.04848188325345859,-0.004001206103168897,-0.0001212047081336487,-1.0003015257886716e-05,-0.0001244925402527777,-0.049797016101114866,True,,False
9,221-308718,line.ln5775442-1,0.7788227132044595,1,-0.04848284708120332,-0.004006975558951353,-0.00012120711770297055,-1.0017438897391706e-05,-0.00012449969064314367,-0.049799876257270816,True,,False
9,221-308718,line.ln5896798-1,0.7788225208082477,1,-0.04848281714669156,-0.004006748181694775,-0.00012120704286672224,-1.0016870454210292e-05,-0.00012449942896865693,-0.04979977158746894,True,,False
9,221-308718,line.ln5714974-1,0.7788219732795366,1,-0.04848273325191599,-0.004006116862257159,-0.00012120683312977221,-1.001529215566288e-05,-0.00012449870047006115,-0.04979948018802894,True,,False
9,221-308718,line.ln5473414-1,0.778821479619427,1,-0.04848265906150573,-0.0040055660788596015,-0.00012120664765374878,-1.0013915197115697e-05,-0.00012449806240964978,-0.04979922496387051,True,,False
9,221-308718,line.ln5742828-2,0.7788211518869109,1,-0.048482610510660606,-0.0040052092849123255,-0.00012120652627667372,-1.0013023212296357e-05,-0.00012449764785134253,-0.04979905914052609,True,,False
9,221-308718,line.ln5742828-1,0.7788210308571014,1,-0.04848259267643584,-0.004005079320421601,-0.00012120648169106074,-1.0012698301031797e-05,-0.0001244974964725613,-0.04979899858903899,True,,False
9,221-308718,line.ln5815900-1,0.7788209363750854,1,-0.04848257898365205,-0.004004978263282055,-0.00012120644745911013,-1.0012445658180713e-05,-0.00012449737920092126,-0.049798951680379705,True,,False
9,221-308718,line.a8735_48332_sw,0.7788209362099323,1,-0.04848257853109317,-0.0040049776245325575,-0.00012120644632773736,-1.0012444061346937e-05,-0.0001244973775446946,-0.04979895101787402,True,,False
9,221-311359,line.tpx21459660c0,0.9253781267501007,1,-0.00034057919820895677,-0.0016145428055409639,-2.1831999885146836e-06,-1.0349633368877953e-05,-5.584959971293637e-06,-0.0008712537555211599,False,,False
9,221-311359,line.tpx260595c0,0.8827884658409425,2,-0.00031097652895084593,-0.0014445799544660076,-1.9934392881393315e-06,-9.260127913246485e-06,-5.037096145146567e-06,-0.0007857869986438286,False,,False
9,221-311359,line.tpx226308719b0,0.8407752291970066,1,-0.00039798099801657827,-0.0014835292647461529,-2.5511602436689707e-06,-9.509802979146276e-06,-5.676881326296952e-06,-0.0008855934869063243,False,,False
9,221-311359,line.tpx226308710b0,0.8272369457050999,2,-0.0003908223705337832,-0.00145684449341843,-2.505271606001447e-06,-9.33874675268509e-06,-5.57476922589976e-06,-0.0008696639992377741,False,,False
9,221-311359,line.tpx21197413c0,0.8421027765239131,1,-0.0003089275266177083,-0.001462121413709383,-1.9803046578115158e-06,-9.37257316480089e-06,-5.0609204817075226e-06,-0.0007895035951456313,False,,False
9,221-311359,line.tpx2224230689c0,0.8324382703087002,2,-0.0002976577286091242,-0.0014088324783898543,-1.9080623628875415e-06,-9.03097742560588e-06,-4.876401096913324e-06,-0.0007607185711156136,False,,False
9,221-311359,line.tpx226308725b0,0.7845027178782626,2,-0.00036976843445302165,-0.001378363031705021,-2.3703104772287986e-06,-8.835660459671768e-06,-5.2744516290802765e-06,-0.0008228144541406116,False,,False
9,221-311359,line.ln6291242-1,0.778494076568442,1,-0.0455843021169926,-0.003526393910334491,-0.00011396075529246374,-8.815984775811803e-06,-0.00011685842935977192,-0.046743371743919085,True,,False
9,221-311359,line.ln5654466-1,0.7784937775989963,1,-0.04558429243991213,-0.003526021371499155,-0.00011396073109981586,-8.81505342875677e-06,-0.00011685809904815065,-0.04674323961924488,True,,False
9,221-311359,line.ln6321409-1,0.7784935520585864,1,-0.04558428501928802,-0.003525746238295824,-0.00011396071254821116,-8.81436559568849e-06,-0.0001168578544167494,-0.046743141766710024,True,,False
9,221-311359,line.xj171_48332_sw,0.7784935519624873,1,-0.045584285229381294,-0.0035257460372122296,-0.00011396071307345768,-8.814365093035015e-06,-0.0001168578547767817,-0.04674314191071032,True,,False
9,221-311359,line.ln5513564-1,0.7784934646199771,1,-0.04558428205561427,-0.0035256405348036424,-0.00011396070513902679,-8.814101337017988e-06,-0.00011685776014994036,-0.04674310405997853,True,,False
9,221-311359,line.ln5775442-1,0.7788227132044595,1,-0.04558464146452934,-0.003531174640045265,-0.0001139616036613389,-8.827936600119823e-06,-0.00011686320610332501,-0.046745282441322915,True,,False
9,221-311359,line.ln5896798-1,0.7788225208082477,1,-0.04558463487299491,-0.003530956454170564,-0.00011396158718252059,-8.827391135390883e-06,-0.00011686301033892036,-0.04674520413555949,True,,False
9,221-311359,line.ln5714974-1,0.7788219732795366,1,-0.0455846156682469,-0.003530350670388316,-0.00011396153917059282,-8.825876675944144e-06,-0.00011686246454824452,-0.04674498581931108,True,,False
9,221-311359,line.ln5473414-1,0.778821479619427,1,-0.04558459797598857,-0.003529822168928831,-0.00011396149493997365,-8.824555422337621e-06,-0.00011686198604256598,-0.04674479441702346,True,,False
9,221-311359,line.ln5742828-2,0.7788211518869109,1,-0.045584586054417287,-0.0035294797831966207,-0.00011396146513609207,-8.82369945798267e-06,-0.00011686167489680632,-0.04674466995870415,True,,False
9,221-311359,line.ln5742828-1,0.7788210308571014,1,-0.04558458167679191,-0.0035293550812411922,-0.00011396145419195758,-8.823387703082997e-06,-0.0001168615614837916,-0.04674462459352815,True,,False
9,221-311359,line.ln5815900-1,0.7788209363750854,1,-0.045584578109270524,-0.003529258210420494,-0.00011396144527314744,-8.823145526082321e-06,-0.0001168614729652507,-0.04674458918610774,True,,False
9,221-311359,line.a8735_48332_sw,0.7788209362099323,1,-0.0455845786452187,-0.0035292574380321184,-0.0001139614466130201,-8.823143595126925e-06,-0.000116861473670449,-0.04674458946818413,True,,False
...
